/*--------------------------------*- C++ -*----------------------------------*\
| =========                 |                                                 |
| \\      /  F ield         | OpenFOAM: The Open Source CFD Toolbox           |
|  \\    /   O peration     | Version:  2312                                  |
|   \\  /    A nd           | Website:  www.openfoam.com                      |
|    \\/     M anipulation  |                                                 |
\*---------------------------------------------------------------------------*/
FoamFile
{
    version     2.0;
    format      ascii;
    arch        "LSB;label=32;scalar=64";
    class       polyBoundaryMesh;
    location    "constant/polyMesh";
    object      boundary;
}
// * * * * * * * * * * * * * * * * * * * * * * * * * * * * * * * * * * * * * //

5
(
    inlet
    {
        type            patch;
        nFaces          120;
        startFace       390080;
    }
    outlet
    {
        type            patch;
        nFaces          228;
        startFace       390200;
    }
    upperWall
    {
        type            wall;
        inGroups        1(wall);
        nFaces          892;
        startFace       390428;
    }
    lowerWall
    {
        type            wall;
        inGroups        1(wall);
        nFaces          1000;
        startFace       391320;
    }
    frontAndBack
    {
        type            empty;
        inGroups        1(empty);
        nFaces          391200;
        startFace       392320;
    }
)

// ************************************************************************* //
