/*--------------------------------*- C++ -*----------------------------------*\
| =========                 |                                                 |
| \\      /  F ield         | OpenFOAM: The Open Source CFD Toolbox           |
|  \\    /   O peration     | Version:  2312                                  |
|   \\  /    A nd           | Website:  www.openfoam.com                      |
|    \\/     M anipulation  |                                                 |
\*---------------------------------------------------------------------------*/
FoamFile
{
    version     2.0;
    format      ascii;
    arch        "LSB;label=32;scalar=64";
    class       polyBoundaryMesh;
    location    "constant/polyMesh";
    object      boundary;
}
// * * * * * * * * * * * * * * * * * * * * * * * * * * * * * * * * * * * * * //

5
(
    inlet
    {
        type            patch;
        nFaces          240;
        startFace       1562560;
    }
    outlet
    {
        type            patch;
        nFaces          456;
        startFace       1562800;
    }
    upperWall
    {
        type            wall;
        inGroups        1(wall);
        nFaces          1784;
        startFace       1563256;
    }
    lowerWall
    {
        type            wall;
        inGroups        1(wall);
        nFaces          2000;
        startFace       1565040;
    }
    frontAndBack
    {
        type            empty;
        inGroups        1(empty);
        nFaces          1564800;
        startFace       1567040;
    }
)

// ************************************************************************* //
